  468
       -754.16651202
 C          1.2698628453       -2.8461349029       -0.5897478315
 C          0.6123092867       -1.8717157001        0.4053951250
 O          1.4994848782       -1.5677611833        1.4778110409
 C         -0.7641763024       -2.3420317791        0.9322789002
 H          0.4919144382       -0.9236221620       -0.1255493188
 C          1.8883606601       -2.7031049786        2.2232330850
 C          2.7223897954       -3.6929381676        1.3833490602
 H          0.9971653680       -3.2713263867        2.5362686159
 O          2.4668776926       -2.3159184997        3.4320781609
 C          1.9166379693       -4.0627098223        0.1081391125
 O          2.2456797910       -2.1499461618       -1.3630545101
 H          2.6133630677       -4.5065946804       -0.6176970500
 O          0.8777598175       -4.9680911113        0.4195432491
 H          2.8121342146       -4.6091629328        1.9919922485
 O          4.0016249027       -3.1875301659        1.1239800472
 C          1.2487995037       -6.3393136729        0.3868984379
 C          4.9587090841       -4.1628365285        0.7277515861
 N         -1.8909761284       -1.5266034382        0.5237162067
 H         -0.7137218900       -2.3264870220        2.0256550657
 H         -0.9764745097       -3.3626363472        0.6054231746
 H          0.4782833581       -3.2292017097       -1.2456078164
 H          4.9063142424       -4.3367801787       -0.3488718661
 H          4.8040728165       -5.1001765447        1.2697776861
 H          5.9302332470       -3.7514900184        0.9952745979
 H          1.6699652341       -6.6024993055       -0.5876897232
 H          0.3286405929       -6.8936177151        0.5542944327
 H          1.9690246573       -6.5811252888        1.1724719688
 H          2.6663510355       -3.0961846505        5.6689242033
 C          3.5644055103       -2.8728625314        6.2461341762
 H          3.3088697871       -2.6835585569        7.2861033395
 H          5.0057982532       -2.7206325051        4.2089316951
 O          4.1845271597       -1.6789640388        5.7839005312
 O          6.4048494652       -0.9665369746        3.0657122372
 H          6.4624083274       -0.8412458702        5.1241115567
 C          4.6126423963       -1.7210467447        4.4445331816
 H          4.2623334379       -3.7131986092        6.1814036085
 C          5.7634685546       -0.7055992731        4.2865486143
 C          3.5357474540       -1.3694524189        3.3999877527
 C          5.1969564670        0.7297356573        4.3982739703
 H          2.8804141852        0.2829598486        5.7826582287
 O          4.1288527691        0.9604406963        3.5005643136
 C          3.0328681569        0.0679072904        3.6212319962
 C          2.2240303667        0.2590693046        4.9082916511
 H          1.8920525331        2.1992671414        6.7088183814
 H          0.4479880208        2.8266759695        5.8644149893
 H          1.5390816924       -0.5923700203        5.0160965488
 C          1.0438127017        1.9400835380        6.0663048577
 O          1.4949678676        1.4686895326        4.8076617019
 H          2.3765694274        0.3427272021        2.7923826031
 H          0.4265569574        1.1895887543        6.5687934146
 H          4.0353243740       -1.3952852405        2.4274885104
 H          6.8211815136       -0.1586428612       -4.4054839108
 C          6.8659090268       -1.1276317223       -3.9088333895
 H          7.6515181114       -1.7357322034       -4.3544469444
 H          4.8356999310       -1.1734680935       -2.3370943103
 O          5.6655957544       -1.8624875574       -4.1066350035
 O          4.1588581221       -3.7532001860       -2.5638814831
 H          5.2871180339       -5.4230351166       -2.5976369903
 C          4.5423648769       -1.4544208967       -3.3561914446
 C          4.9419649888       -4.6796445954       -3.3131070551
 H          7.0594255286       -0.9823631642       -2.8444444272
 C          3.6226286643       -2.6909324229       -3.3158139637
 H          4.3295749848       -5.1606317923       -4.0818172965
 C          3.8168993091       -0.2501856870       -4.0007192214
 C          2.2269229546       -2.3714747181       -2.7494636324
 H          5.7914200920       -4.1827529450       -3.7811632861
 H          1.9085705588        1.9682674892       -3.8374615134
 H          3.7282376402       -0.4397823716       -5.0793390028
 O          4.6283675730        0.9024977293       -3.7863337844
 O          1.6659099474       -1.2952539034       -3.4436093480
 C          2.4098940107       -0.0788458150       -3.3932616568
 C          1.5636942281        0.9760155929       -4.1327121133
 H          1.4161409893       -1.0720045058       -5.9905452769
 H         -0.0774069920       -0.1235881582       -5.8218058917
 H          0.5190816890        0.8296864936       -3.8356586554
 C          0.9559427085       -0.0984145102       -6.1755128515
 O          1.6811356794        0.9409519468       -5.5353808894
 H          2.5287116302        0.2309807882       -2.3460348229
 H          0.9865452548        0.1331235390       -7.2386716844
 H          1.5679586503       -3.2234307862       -2.9740089222
 H          8.7420371945        1.9061771959       -5.5787425745
 C          8.9896270289        2.6516206905       -4.8212790607
 H          9.2549232650        2.1533512984       -3.8865631645
 H          6.9751604944        2.1091489619       -3.4336916811
 O          7.9043805304        3.5432974416       -4.6062785102
 O          6.4754955949        1.4188906321       -5.9493008042
 H          5.6272056665        3.2970500371       -5.9104869566
 H          6.0949196805        2.1297906409       -7.8595540719
 C          6.7295947625        2.9455670243       -4.1000285680
 C          6.0019128890        1.2118702024       -7.2709730332
 H          9.8114893905        3.2770273864       -5.1624195247
 C          5.8263123515        2.4458927277       -5.2398942469
 H          6.6390520222        0.4352063311       -7.6881012711
 C          6.0004041451        4.0264916540       -3.2818295377
 C          4.4653582636        1.9912831149       -4.6692769789
 H          4.9610248986        0.8791409690       -7.2809958875
 H          4.2166685564        5.2076906496       -1.5363891177
 O          3.8457044495        3.0939746888       -4.0658346233
 C          4.5469824735        3.6492148054       -2.9577509149
 C          3.7735916047        4.8906487310       -2.4810516015
 H          3.1208711044        6.8818802627       -4.9915299311
 H          3.0618697443        5.0945027098       -5.0533026268
 H          2.7310972381        4.6075593684       -2.3016195327
 C          2.9280178912        5.9750385497       -4.4220392288
 O          3.8559250750        5.9917171266       -3.3493411244
 H          4.5638046728        2.9131164843       -2.1490675010
 H          1.9024760153        5.9880791913       -4.0376588310
 H          3.7907070814        1.7161653257       -5.4891690389
 H          9.5630355078        4.8920430510        2.9430425566
 C          9.9705026471        4.1736646789        2.2293632821
 H         11.0289911403        4.0121497933        2.4279512949
 H          7.9900354941        3.9387236099        0.6014575155
 O          9.9101031010        4.6682051527        0.9025871162
 O          9.3434894732        3.5732685730       -1.6394646112
 H          9.6314859008        5.5951571492       -1.3631640917
 H         10.9709870158        2.4852071664       -2.1097080733
 C          8.6187301972        4.7966626969        0.3332164650
 C         10.7558380998        3.5056975800       -1.8005851331
 H          9.4273016610        3.2257397728        2.3070403001
 C          8.8729103080        4.8199558224       -1.1855792736
 H         11.0868938896        4.2035291028       -2.5750170141
 C          7.9155380802        6.0935432346        0.7857446868
 C          7.6290536934        5.2374903843       -1.9963683299
 H         11.2613878993        3.7356111172       -0.8604982530
 H          5.4017460738        7.6007374212        1.1094551047
 H          7.9464860254        5.4921863531       -3.0158502540
 O          7.0999431137        6.4273718567       -1.4737397128
 C          6.6931802654        6.3641385749       -0.1068240629
 C          5.9981801101        7.7062132730        0.2011333045
 O          6.6744279323        4.2137244496       -2.0403239682
 H          7.9826576741        8.6550198030       -1.3111319584
 H          6.6183175161        9.7970493745       -1.3376436057
 H          5.3371377440        7.9306212472       -0.6464333908
 C          7.4167595783        9.3757648016       -0.7179657960
 O          6.8724839759        8.7758682908        0.4466943739
 H          5.9702873343        5.5468178694        0.0173305821
 H          8.0691618123       10.1702300915       -0.3618827822
 H          6.0076874551        4.9616528743       -3.8569014495
 C          7.7973644477       -0.6799485471        3.0628459805
 H          8.1499350862       -0.9483910375        2.0702780873
 H          8.3096647006       -1.2809463601        3.8214012667
 H          7.9762244503        0.3790423755        3.2499608116
 H          9.1135377834        2.7537082848        5.9643078008
 C          8.5726895709        3.5804693727        6.4355102929
 H          8.5170480357        3.4226528528        7.5104321855
 H          7.9261496416        3.4494545164        4.0554354799
 O          7.2245557864        3.6102424934        5.9900172187
 O          7.9902175824        6.0080784695        4.7054198734
 H          5.9684213995        5.6550766493        4.8537783432
 H          6.9820448048        7.6236117749        5.5229062960
 C          7.0548452190        3.8197323406        4.6061932192
 C          7.8127630880        7.4092935053        4.8427180041
 H          9.0776896779        4.5228714789        6.2173456176
 C          6.8459506826        5.3131901200        4.2861567540
 H          8.7446398846        7.7798938930        5.2639482313
 C          5.8228124604        3.0141591789        4.1794100259
 C          6.5458805544        5.5110695808        2.7607380475
 H          7.6295152900        7.8785380258        3.8741119389
 H          3.2035411120        3.3088015045        3.1593836177
 H          5.6750158086        6.1839910593        2.6555744274
 H          5.0527823005        3.1462369237        4.9475658540
 O          6.2115451552        1.6426306322        4.1305544928
 O          6.2462437490        4.2871894119        2.1305085686
 C          5.2979402378        3.4851826329        2.8101895711
 C          3.9059768634        4.1156052048        2.9086560669
 O          7.6734127790        6.0986417693        2.1888484459
 H          2.6236855604        6.3562293778        4.8956251519
 H          2.1514447608        6.0618666063        3.1952917281
 H          3.6281153216        4.5261694416        1.9281399701
 C          2.5452970061        5.6082883313        4.1101176068
 O          3.8589185725        5.1188324888        3.9011994081
 H          5.2083265905        2.6041966466        2.1696809607
 H          1.8800048480        4.7980718650        4.4234439810
 H          4.8399684629        0.8695575666        5.4376926078
 H          3.4754178485       -3.0110192848       -4.3583098084
 H          8.6260001479        6.9221264399        0.6680288708
 N        -20.0786784264        3.0192437999        0.0086505794
 C        -21.3419054607        2.9674071373       -0.4096214030
 N        -21.6161237520        3.2579077595       -1.6900708349
 C        -22.8900752016        3.1638209855       -2.0226898834
 O        -23.1680108455        3.4468897451       -3.2858587620
 N        -23.8815684693        2.8179086617       -1.2043097872
 C        -23.5016966303        2.5471036735        0.0442990722
 O        -24.4191493653        2.1920994579        0.9308838155
 N        -22.2642376967        2.6010766812        0.4972272088
 C        -18.9643382604        3.4954912028       -0.7797358430
 H        -19.9345941893        2.8485977676        0.9931894989
 C        -17.6936706464        2.6858736252       -0.5110530238
 C        -16.5439708179        3.2183133946       -1.3728661511
 H        -17.8741321723        1.6343661704       -0.7395642911
 H        -17.4222882652        2.7698416999        0.5427506818
 N        -15.2792568116        2.5710818357       -1.0972374255
 H        -16.3917751612        4.2826126367       -1.1767117557
 H        -16.7922087956        3.0897492664       -2.4318000728
 C        -14.1698551459        3.2546304311       -0.7527329740
 C        -12.8545584562        1.1193800659       -0.2940582813
 C        -11.7088559373        3.1459385193       -0.8655028277
 C        -10.4944401192        2.4987449809       -0.7791349192
 C        -10.4307742211        1.1421627433       -0.4439097607
 C        -11.6378575058        0.4733923913       -0.2019061053
 H        -11.6050146036       -0.5702009603        0.0747163938
 H         -9.5895437759        3.0487700867       -0.9826501200
 C        -12.9079910636        2.4700103274       -0.6361693514
 H        -13.7584381360        0.5727213678       -0.0689965957
 H        -11.7568183036        4.1953112372       -1.1176927017
 C         -9.1910717012        0.3930928397       -0.3319549737
 C         -7.9482667145        0.9048241594       -0.2919298587
 C         -6.7237178918        0.1360636787       -0.1472872895
 C         -6.6992239536       -1.2605154680       -0.1356618177
 C         -5.5140125257       -1.9413363450        0.0179952420
 C         -4.2868748760       -1.2755127042        0.1220313293
 C         -4.3053984382        0.1190219679        0.1219458588
 C         -5.5005352450        0.7992644328       -0.0043071795
 H         -5.4754643964        1.8751064762        0.0032424011
 H         -3.3976835253        0.6982538856        0.1826214476
 H         -7.6069317931       -1.8224866767       -0.2704993753
 H         -5.5260386046       -3.0190201914        0.0588353809
 H        -18.7754055619        4.5504523411       -0.5475451041
 H        -19.2617441052        3.4224788098       -1.8266646449
 H        -15.2082774460        1.5854166188       -1.2948390479
 O        -14.1818426664        4.4705848553       -0.5665521031
 C        -24.5332188446        3.3662618452       -3.6857526015
 C        -25.7690344966        2.1260143758        0.4791345353
 H        -24.5379773756        3.6357080956       -4.7390566135
 H        -25.1426235288        4.0613328132       -3.1066602453
 H        -24.9137995620        2.3538397444       -3.5440965715
 H        -25.8677586650        1.3943878324       -0.3238999637
 H        -26.0991019165        3.1007721720        0.1174698049
 H        -26.3459728329        1.8228207337        1.3493325259
 C         -3.0671719749       -2.1147293664        0.1839524873
 H         -1.9106655209       -0.5703152805        0.8495839039
 O         -3.1092744110       -3.3162289584       -0.0861336528
 H          0.0904014195        6.7030097805        0.4677382696
 C         -0.8717714876        6.2057550804        0.3715664871
 H         -1.3381558284        6.4880016668       -0.5765439873
 H         -1.5210604046        6.4999762007        1.2002052090
 O         -0.5836589151        4.8152149488        0.3985629337
 H          0.8575686803        1.9972228209        2.1172181237
 H         -0.2949018419        3.0051467553       -1.2290943883
 O          3.1413199958        3.3145046726        0.0079156935
 C          0.8742721473        2.1609378811        1.0324013509
 H         -7.0032525253        1.4991427519       -2.7107181562
 H         -1.2040559086        2.6502293834       -3.0220797417
 C         -1.6745752186        3.9691656871        0.1034289184
 H         -0.0404070599       -2.9436238965       -4.9739412714
 N          1.9986014601        1.4342392722        0.4777946438
 C          3.1417296260        2.0919962078        0.1581667810
 C         -1.1034882431        2.6948888910       -0.5564526090
 H          5.5211623292        3.1064746330       -0.1813413769
 H         -1.6420946716       -3.7449906274       -4.9655003647
 H         -2.3337442881        4.4442362978       -0.6370400484
 O         -1.4281294461        1.4863076864        1.5361083088
 C          5.5697419041        2.0290607444       -0.1841494427
 H          1.0538592780        3.2199200780        0.8338344046
 C          4.3855914562        1.3021424842       -0.0120252540
 H         -6.2227627011        3.0896394304       -2.9579980571
 H          7.6511093324        2.0224148877       -0.5471831780
 C         -0.5027464584        1.7270670063        0.4797012643
 C          6.7851100141        1.4090229781       -0.3597202091
 C         -1.9975249013        1.9635261856       -2.6908429935
 C         -6.5567864879        2.1730496260       -3.4462875143
 H         -1.7998077938       -2.6543382316        4.0179049366
 C         -1.0770738852       -2.8763676429       -5.3174283136
 H         -2.5612683236        4.6121210447        1.9610527688
 O         -1.5537855703        0.7064419960       -3.1172025495
 C          4.4731116488       -0.0890689509        0.0074407081
 H         -3.0965726445        2.4686685058       -4.4636501006
 C          6.8835586080        0.0155310487       -0.3234629453
 H         17.9297938506       -0.8789801220       -1.3699098512
 H          3.5995623741       -0.7147453221        0.1061771148
 H          9.8482412699       -2.7618743149       -1.2320318874
 C         -2.5172469710        3.6783274748        1.3744038126
 C          5.6997312600       -0.7076975867       -0.1346327348
 C          8.1408693677       -0.6980162020       -0.4778803163
 H         -1.1070771364       -2.8243549161       -6.4031284698
 H          2.0621773998        0.4523310489        0.7076195023
 H         -0.8492384565        3.1646772584        2.5864452142
 O         -2.1362842644        2.0442462070       -1.2948238612
 C         -1.7667460510        2.6533726750        2.2539780430
 H         -4.5418571427        3.9415390120        5.8924462897
 C         -3.3217389190        2.3405809074       -3.3941445690
 O         -5.4737550441        1.5350571712       -4.1128099961
 C         10.7359646756       -2.1806833087       -1.0397153895
 H         12.0535659528       -3.8224518693       -1.4333976830
 C          9.3595251428       -0.1354763748       -0.5484980954
 H          5.7330727423       -1.7841242305       -0.1009070888
 C         11.9718484905       -2.7795170234       -1.1638848716
 H         16.9061148543       -2.5341314749       -2.9728867214
 C         -1.2058838287       -2.3155520195        4.8733606277
 H         19.3205020876       -2.4010624854       -2.7861748857
 C         10.6275925348       -0.8316796523       -0.6857993504
 H         -2.4506292960        0.5685563392        5.7713281604
 H         -7.2793676305        2.4045870934       -4.2257175075
 H         15.3592969553       -1.0659275326       -1.7205686964
 H         -1.0184260574        0.3128419296        4.7367069492
 H         -3.9278622713        5.5371096096       -3.0347447639
 H         -3.4622852914        3.2210436750        7.1191406402
 C         13.1489835100       -2.0596897896       -0.9562425923
 O         -1.6741718522       -1.6814549627       -4.8490729005
 C         -3.7222875952        3.2370135268        6.0631058449
 H         -1.0402062172       -3.1500560590        5.5528471167
 N         15.4952664330       -2.0453074803       -1.5239781886
 H         -0.4018655057        0.7595168114       -0.0190125036
 C         11.8135291027       -0.1218803468       -0.4582405115
 C         17.9533413706       -1.9538694016       -1.1779043835
 C         -2.0083648743       -0.0730489969        5.0098612122
 C         14.4395698496       -2.7855986353       -1.1316393708
 H         -2.2121636657       -2.5139961512       -3.0399823958
 C         -4.3716221307        1.2168502511       -3.2917806659
 O         -3.8513526998        3.5342849188       -2.8663961343
 O         -1.9034339421       -1.3403006220        5.6200407056
 H         20.3885269045       -0.8825947406       -0.9552350325
 C         13.0516655823       -0.7183615033       -0.5896992275
 C         16.7718973509       -2.6218745365       -1.8882613628
 C         -2.4710897580       -0.3776694853       -2.9809491943
 N         20.4118930803       -1.8831861457       -1.0858166661
 C         19.2723533331       -2.5295358195       -1.6974417254
 H         26.3157859976       -2.6452656317       -0.1826805850
 H         11.7530182772        0.9154707096       -0.1637674871
 H         21.7155838266       -5.9856296523       -2.3909397819
 H         -0.2423837353       -1.9277515321        4.5228513369
 O         -3.8220491455        3.2463397316        1.1056269853
 C         -3.3891154459        4.7165709314       -3.5045589376
 O         -4.1382708537        1.9119784947        5.7550642971
 C         21.5766443238       -2.4716592726       -0.8191784536
 O         14.5186934068       -3.9997054833       -0.9534011240
 N         21.7018954969       -3.7916773842       -1.0340786021
 H         13.9387999671       -0.1402726099       -0.3771943862
 N         22.5520174286       -1.6908532132       -0.3319889350
 C         -1.7134448263       -1.6233262529       -3.4400035774
 O         -2.4171958504        2.3308372164        3.4455750455
 C         22.8803116707       -4.2984079957       -0.7231032095
 C         23.6860422412       -2.3157326744       -0.0638444805
 O         23.1009277802       -5.5915439513       -0.8969861041
 N         23.9142987673       -3.6149167495       -0.2364023135
 H         17.8762941788       -2.1133248152       -0.1020222584
 H         -3.6195523304        4.6917007614       -4.5734869306
 O         24.6555839075       -1.5516686816        0.4139024811
 H         -2.8574301655        3.5221886592        5.4629374137
 H         -4.6027072063        4.2998468615       -0.5092006518
 H         -4.6880673399        1.0942590056       -2.2504356668
 C         22.0214238785       -6.3649387858       -1.4150592192
 C         -3.7594276862       -0.1080986610       -3.7861481501
 C         25.8939655081       -2.1902400102        0.7143950296
 C         -4.6846924682        4.2495728957        0.5798342112
 H         -2.7410013738       -0.4972355368       -1.9249698195
 H         22.4089763685       -7.3773392865       -1.4972627366
 H         25.7502432940       -2.9649692460        1.4685967149
 H         16.7205411525       -3.6819087974       -1.6297357369
 H         -5.6945805431        3.9560709645        0.8616753317
 H         19.3456751060       -3.5949941883       -1.4767009260
 C         -2.8763552213       -0.0584738614        3.7276836948
 C         -3.4457776144        1.3421509547        3.4228891797
 C         -4.5596125512        1.7206480990        4.4261260793
 H         -2.3123267562        4.8523105578       -3.3703935127
 H         -5.0420162746        2.6357420430        4.0549993333
 H         -0.6896401994       -1.5641036498       -3.0462420481
 H         -3.4997950743       -0.0071642096       -4.8483109661
 O         -4.7509891038       -1.1220868777       -3.6368300234
 O         -3.9246557131       -1.0146346909        3.7460398105
 H         26.5389486691       -1.3989600279        1.0884675578
 H         21.1691044478       -6.3313994721       -0.7350613764
 H         -2.2610673632       -0.3754285953        2.8823637312
 H         -4.4597428760        5.2249785420        1.0196658869
 H         -3.9242684052        1.3074407906        2.4393245316
 C         -5.6194651056        0.5989674266        4.4185113085
 H         -6.3339556807        0.7800818686        5.2356488882
 C         -4.9219388798       -0.7491282825        4.7067938763
 H         -8.0393862238        0.5252268830        2.2430620598
 C         -4.6640274630       -2.2461199411       -4.4801248265
 H         -4.3042998738       -4.6201646967        1.5552277107
 O         -6.2648319000        0.6618440209        3.1748557697
 H         -3.9640455431       -2.0455923818       -5.3011035681
 H         -3.8434349754       -7.2879779100       -4.5765617000
 H         -8.1252773330       -0.8996796802       -5.2201217676
 O         -4.1460156905       -3.3806657996       -3.8239035495
 H         -4.4507693498       -0.6862770289        5.7066198142
 H         -4.3178687727       -3.1172680623        4.8636187479
 O         -6.5171017101       -1.8788968862       -6.1077307919
 C         -7.5714527733        0.1027745541        3.1290350182
 H         -7.3923160913       -0.1758234224       -6.6753036044
 H         -8.1388075142        0.3817082860        4.0207394295
 H         -5.7670642641       -3.6325508115       -5.6068464248
 O         -4.4771610794       -6.2367012433       -2.9880605389
 C         -7.1862890510       -0.6778699289       -5.7321537153
 O         -5.8731953718       -1.7765321045        4.7042920482
 H         -2.5409972480       -6.4423353797       -3.6936858787
 C         -6.0157363706       -2.6975853414       -5.0851634689
 C         -3.5672399565       -6.3665687449       -4.0677785574
 C         -4.1932356289       -4.3379242664        2.6125044250
 H         -5.2402894688       -2.4926041006        2.4785652611
 C         -5.3572179935       -3.0987495174        4.5207186622
 O         -4.0904921007       -5.4833901803        3.4213085577
 H         -3.2762553808       -3.7359072947        2.6954883415
 C         -5.3667474730       -3.4363393094        3.0196620348
 C         -4.9077839342       -3.8187826958       -2.7027942802
 H         -7.5362934598       -0.9836206102        3.0448692242
 C         -4.2684684297       -5.1127426382       -2.1695834699
 H         -4.7454442371       -5.3410152737       -1.2153533160
 H         -4.8505773479       -3.0506815377       -1.9268565902
 H         -6.5517721615       -0.0511011574       -5.1079031411
 H         -2.9893823361       -7.1162461434        3.7976705767
 H         -3.6395980839       -5.5196141923       -4.7534095268
 H         -7.9742257288       -3.9416773699       -6.4195343509
 H         -6.6230398963       -3.4799642167        6.2053854050
 C         -2.9463687004       -6.2623820981        3.1262835182
 C         -7.0018523267       -3.0170773677       -3.9533917653
 H        -10.0631590349       -3.1716959344       -3.1552572736
 C         -6.1511223594       -4.0837458339        5.4125827222
 H         -2.0298185259       -5.6892116349        3.3013973083
 O         -5.2922968470       -5.0337212889        6.0030682943
 H         -8.0715178883       -3.4881591553        0.8750989231
 O         -8.2760831050       -3.4185552458       -4.4280365441
 C         -6.3970204247       -4.0678680615       -2.9989748872
 H         -9.8418500554       -2.8503861406        5.0695508841
 H         -6.4679819101       -5.3601135828        0.4312452295
 H         -8.1382779133       -2.3580034870        4.8525242429
 H         -3.9303097576       -3.7316634862        6.9113539781
 O         -7.0791619860       -4.0192300113       -1.7422383188
 H         -3.2018169533       -4.9381666546       -1.9973009297
 C         -8.3191903846       -4.3769565182       -5.4791704967
 O         -6.6251416149       -3.8992991462        2.5736443087
 H        -11.4212096399       -3.4265435874       -2.0150952245
 O         -8.2308455960       -5.5681999374        2.6606626712
 H         -7.1936769007       -2.1147136027       -3.3631369421
 C         -8.8999555002       -3.0909954364        4.5804264524
 C        -10.5180402986       -2.8427264731       -2.2198731924
 C         -4.5891881001       -4.5736015632        7.1442998529
 H         -2.9638199339       -6.5967681174        2.0833764155
 H         -6.1490576484       -7.8149340537       -0.0704001970
 H         -9.3699512625       -4.6473016284       -5.5679398240
 H         -5.2896155075       -4.2732919108        7.9311403065
 C         -8.9052856258       -4.1849469360        0.7563636165
 C         -7.0444684542       -5.0847635135        3.2144994478
 H         -9.1430190317       -9.6914419366        0.0797713803
 C         -7.2943560702       -4.8825733147        4.7306737270
 C         -7.3109984612       -6.0605570021        0.3592605954
 H         -7.7322964095       -5.2690140754       -5.2460889686
 H         -6.5001662603       -5.0713608481       -3.4323776481
 O         -9.9465892843       -3.6052278691        1.5103621044
 O         -7.8549736092       -8.4091843631        0.9293485693
 H         -9.0357068431       -3.0935003547        3.4982545242
 C         -8.4597082371       -5.5711843762        1.2566314651
 O         -9.6021822640       -2.9448948158       -1.1388576592
 H        -10.7689600304       -1.7864387687       -2.2882253705
 C         -6.8260344325       -7.4773874993        0.7257199023
 H         -7.5952679949       -9.5246964272       -0.7976751638
 C         -8.1559816323       -4.8996469110       -1.5763023990
 O         -8.5623806724       -4.3869503120        5.0624739836
 C         -8.3805192868       -8.9902134478       -0.2526815853
 C         -9.2845824240       -4.2501746181       -0.7362282622
 H         -3.9951869974       -5.4203095051        7.4799891242
 O         -7.7620179155       -6.1188096703       -0.9954245162
 H         -7.2831497212       -5.8807924730        5.1834720357
 H         -6.2394917653       -5.8336816723        3.1219908324
 H         -8.5600751658       -5.1908503406       -2.5546465610
 H         -9.2836578627       -6.2877313896        1.1533161274
 C        -11.0634393071       -4.4204535228        1.8391834521
 H         -6.2855248820       -7.4268540345        1.6731146998
 H        -11.4850958388       -4.9127548753        0.9594011525
 H         -8.8182389650       -8.2356172175       -0.9089849463
 H        -10.1637784820       -4.9057699494       -0.8473221568
 H        -11.7952174222       -3.7306078232        2.2551342856
 H        -10.7943970286       -5.1659036887        2.5912525525
 H         -7.8042391460        1.9763286823       -0.3346973263
 H         -9.3246854556       -0.6766599781       -0.2483330290
 H          9.4447932433        0.9400455237       -0.4794892874
 H          8.0442941970       -1.7756532391       -0.5107512249
