380
Energy = -21706.88227638
C -13.1063430 2.2694045 -3.3259731
C -14.2274000 3.1044899 -0.9018223
C -14.2137599 1.5874754 -2.8296473
C -12.5890848 3.3613898 -2.6540632
C -13.1234015 3.7569079 -1.4419108
C -14.7440637 2.0344924 -1.6240389
H -11.7846968 3.9282598 -3.0971567
H -15.6054727 1.5168144 -1.2224571
O -12.5788387 4.8384916 -0.7891389
C -11.3753120 4.6398843 -0.1698095
C -11.3696168 4.4711647 1.2343505
C -11.3413202 1.2343504 -4.4574560
C -11.3496902 -0.1693361 -4.6309277
O -12.5523491 -0.7850947 -4.8473722
C -13.1242441 3.3128700 2.2593965
C -14.2252941 0.8789405 3.0917655
C -12.5980196 2.6412372 3.3474260
C -14.2277824 2.8085351 1.5768394
C -14.7487036 1.5987926 2.0234360
C -13.1217831 1.4237550 3.7410957
H -11.7948225 3.0881919 3.9130118
H -15.6082204 1.1917143 1.5069484
C -13.1114817 -1.4377934 -3.7727599
C -14.2261986 -2.8217313 -1.6124553
C -12.5904019 -2.6559636 -3.3776442
C -14.2166245 -0.8919368 -3.1270621
C -14.7442665 -1.6112909 -2.0604833
C -13.1211824 -3.3273526 -2.2916523
H -11.7858159 -3.1036171 -3.9407038
H -15.6049331 -1.2032825 -1.5466729
O -12.5667025 0.7705321 4.8175223
O -12.5729912 -4.5321024 -1.9187507
C -11.3638080 0.1540103 4.6045388
C -11.3559198 -1.2495194 4.4298626
C -11.3713679 -4.4884700 -1.2618253
C -11.3811697 -4.6570604 0.1423262
C -13.1183824 -2.2833732 3.2931005
C -14.2334602 -3.1176706 0.8659220
C -14.2238140 -1.6004874 2.7936564
C -12.6003482 -3.3760019 2.6228122
C -13.1317160 -3.7712461 1.4092505
C -14.7511201 -2.0470933 1.5865904
H -11.7978368 -3.9436522 3.0683083
H -15.6109484 -1.5286939 1.1825778
O -12.5565301 -1.9074827 4.4906170
C -14.8305150 -0.4341492 3.5507206
H -14.5629005 -0.5602966 4.5993715
C -14.8383315 3.5614955 0.4095374
H -14.5774504 4.6119023 0.5351906
C -14.8192553 0.4215568 -3.5882794
H -14.5483458 0.5471395 -4.6361508
C -14.8412277 -3.5741036 -0.4471230
H -14.5812477 -4.6248222 -0.5720111
C -9.0173770 0.1830097 4.3574687
C -8.9934486 -1.2033286 4.1790190
C -9.0039741 -0.1995658 -4.3774186
C -8.9795356 1.1869131 -4.2001687
O -12.5413449 1.8930433 -4.5218640
O -12.5730424 4.5166704 1.8878851
O -12.5866936 -4.8537773 0.7583899
C -16.3651959 3.5055543 0.4022605
H -16.7571957 4.1123748 -0.4135552
H -16.7708111 2.5011763 0.2807014
C -16.3578068 -0.4290880 3.5044732
H -16.7471159 0.3856863 4.1144083
H -16.7471193 -1.3662821 3.9013000
C -16.3680219 -3.5162467 -0.4443336
H -16.7589702 -3.9109535 -1.3817366
H -16.7727393 -2.5113555 -0.3240579
C -16.3466853 0.4179490 -3.5466173
H -16.7338925 1.3553802 -3.9449346
H -16.7619110 0.2969612 -2.5461067
H -16.7698989 -0.3073266 2.5027611
H -16.7631798 -4.1225093 0.3703705
H -16.7349367 -0.3966642 -4.1574408
H -16.7584162 3.9006714 1.3385411
C -9.0047485 -4.2847518 -1.2186430
C -9.0305203 -4.4526600 0.1690526
C -9.0030502 4.2649869 1.1977746
C -9.0248729 4.4328488 -0.1899897
C 12.4222088 3.7660152 -1.4126170
C 13.5103800 1.5994641 -2.8064523
C 13.5291707 3.1142518 -0.8775695
C 11.8823039 3.3709613 -2.6226010
C 12.4052042 2.2853673 -3.3020538
C 14.0414769 2.0430656 -1.6000303
H 11.0741171 3.9370775 -3.0605614
H 14.9027878 1.5239437 -1.2003505
O 11.8522934 1.9228362 -4.5086255
C 10.6475091 1.2736202 -4.4651142
C 10.6472590 -0.1325319 -4.6097972
C 10.6904063 4.7101604 -0.1368539
C 10.6874202 4.5536117 1.2690333
O 11.8942030 4.5419756 1.9139765
C 12.3977171 -1.4194018 -3.7389036
C 13.5243304 -2.8183660 -1.5967370
C 11.8751824 -2.6388807 -3.3481987
C 13.5091309 -0.8797114 -3.0990377
C 14.0403520 -1.6048323 -2.0388162
C 12.4170417 -3.3213533 -2.2741937
H 11.0671155 -3.0826916 -3.9098797
H 14.9048306 -1.2017151 -1.5277560
C 12.4181276 3.3205913 2.2682506
C 13.5060824 0.8782972 3.0952030
C 11.8715702 2.6377092 3.3396873
C 13.5263215 2.8168011 1.5931330
C 14.0404108 1.6028734 2.0361427
C 12.3926844 1.4180413 3.7317512
H 11.0611211 3.0806773 3.8986269
H 14.9058077 1.1991212 1.5271589
O 11.8884150 -4.5410914 -1.9207840
O 11.8372357 0.7608631 4.8046801
C 10.6818461 -4.5485978 -1.2748496
C 10.6861361 -4.7055024 0.1308741
C 10.6400542 0.1326246 4.6056948
C 10.6409227 -1.2739931 4.4620000
C 12.4177681 -3.7651901 1.4080787
C 13.5064407 -1.6003322 2.8035570
C 13.5260099 -3.1146533 0.8745061
C 11.8765171 -3.3698381 2.6173649
C 12.3996926 -2.2848545 3.2975296
C 14.0387610 -2.0442235 1.5977332
H 11.0670966 -3.9349503 3.0542618
H 14.9010845 -1.5258775 1.1992048
O 11.8908798 -4.8559522 0.7571065
C 14.1421459 -3.5717843 -0.4341712
H 13.8866418 -4.6233800 -0.5601062
C 14.1146965 0.4318054 -3.5634015
H 13.8446061 0.5554695 -4.6116386
C 14.1456397 3.5702558 0.4314189
H 13.8913439 4.6220953 0.5577014
C 14.1103776 -0.4331103 3.5613441
H 13.8384571 -0.5562263 4.6091692
C 8.3041773 -4.5027354 -1.2623091
C 8.3281493 -4.6451306 0.1275388
C 8.3109365 4.5153283 1.2586651
C 8.3318001 4.6565764 -0.1309879
O 11.8952965 4.8580319 -0.7636044
O 11.8438904 -0.7609004 -4.8119373
O 11.8462749 -1.9221464 4.5037880
C 15.6420882 0.4254535 -3.5215348
H 16.0308368 1.3612281 -3.9220543
H 16.0575976 0.3059383 -2.5209877
C 15.6684710 -3.5082307 -0.4266328
H 16.0636240 -3.9006266 -1.3631730
H 16.0631652 -4.1144301 0.3882600
C 15.6378199 -0.4277636 3.5219548
H 16.0242249 0.3888055 4.1312482
H 16.0550782 -0.3093623 2.5220088
C 15.6718674 3.5048327 0.4242967
H 16.0671794 3.8968999 1.3609144
H 16.0675946 4.1104141 -0.3905509
H 16.0699685 -2.5024117 -0.3036758
H 16.0252666 -1.3634948 3.9238321
H 16.0721919 2.4985094 0.3016602
H 16.0289222 -0.3909063 -4.1308317
C 8.2910996 0.1328215 4.3987160
C 8.2715726 -1.2586943 4.2756904
C 8.2988817 -0.1361133 -4.3895999
C 8.2790495 1.2558544 -4.2677953
C -2.7120400 4.0587073 0.5751073
C -3.4458737 3.0667434 1.2053348
C -4.8270474 3.0721597 1.1615815
C -5.5245876 4.0703515 0.4946981
C -4.7772821 5.0454931 -0.1523404
C -3.3972320 5.0424171 -0.1186787
F -2.8263627 2.0982132 1.8652107
F -5.4840297 2.0920821 1.7699643
F -5.3932139 6.0332617 -0.7930706
F -2.7367378 6.0101591 -0.7370689
C -2.7159447 -4.0623453 -0.5758813
C -3.4517554 -3.0736140 -1.2087209
C -4.8329059 -3.0845089 -1.1698610
C -5.5286569 -4.0855630 -0.5054551
C -4.7796608 -5.0579335 0.1437630
C -3.3994370 -5.0492190 0.1150082
F -2.8338543 -2.1022954 -1.8659738
F -5.4915363 -2.1065875 -1.7798951
F -5.3940302 -6.0481050 0.7823094
F -2.7370556 -6.0142585 0.7356544
C -2.7104053 0.4299101 -3.6538888
C -3.4894894 1.0932633 -2.7198052
C -4.8677718 1.1004496 -2.8244598
C -5.5160718 0.4519698 -3.8675314
C -4.7241531 -0.2184594 -4.7901058
C -3.3477318 -0.2360764 -4.6876489
F -2.9165340 1.7305973 -1.7076405
F -5.5705459 1.7313804 -1.8917454
F -5.2919843 -0.8400279 -5.8184416
F -2.6423334 -0.8816493 -5.6048253
C -2.7223927 -0.4570678 3.6504672
C -3.3609841 0.2104039 4.6825086
C -4.7378163 0.1967607 4.7806123
C -5.5287566 -0.4710714 3.8553354
C -4.8791748 -1.1200794 2.8134161
C -3.5006214 -1.1167044 2.7130609
F -2.6565916 0.8526757 5.6027018
F -5.3070823 0.8189480 5.8077662
F -5.5808488 -1.7484101 1.8781274
F -2.9263265 -1.7551137 1.7023496
C -10.2018417 4.6459853 -0.8940806
H -10.1935823 4.8190600 -1.9602839
C -10.1889019 4.3084362 1.9277108
H -10.1749484 4.2221635 3.0049666
C -10.1925530 0.8817927 4.5966664
H -10.1843578 1.9475944 4.7721651
C -10.1756610 -1.9377387 4.2425492
H -10.1594902 -3.0142408 4.1483776
C -10.2096885 -4.6646459 0.8698361
H -10.2046863 -4.8374676 1.9361050
C -10.1885535 -4.3271606 -1.9518929
H -10.1715026 -4.2406985 -3.0290850
C -10.1789509 -0.8978718 -4.6190583
H -10.1709116 -1.9638483 -4.7935187
C -10.1611329 1.9219979 -4.2675325
H -10.1445756 2.9985831 -4.1743502
C -6.9865868 4.1463113 0.5192334
C -6.9844309 -0.5133919 4.0064113
C -6.9903151 -4.1655921 -0.5343785
C -6.9713629 0.4958074 -4.0221075
C 6.2715484 4.5430284 0.6074984
C 6.2558766 0.5876490 -4.1069000
C 6.2453594 -0.5923767 4.1276472
C 6.2672208 -4.5254310 -0.6041289
C 9.5120405 4.7763226 -0.8513936
H 9.5034443 4.9268444 -1.9210733
C 9.5051338 4.4760533 1.9754130
H 9.5002499 4.4021431 3.0540185
C 9.4692453 1.9770187 -4.3213534
H 9.4655002 3.0555255 -4.2485051
C 9.4699129 -0.8508926 -4.5926633
H 9.4566828 -1.9211586 -4.7381801
C 9.4622227 0.8501725 4.5931615
H 9.4460297 1.9211149 4.7332540
C 9.4630206 -1.9787162 4.3227079
H 9.4604730 -3.0571866 4.2494364
C 9.5085388 -4.7691013 0.8463305
H 9.5003048 -4.9205769 1.9158321
C 9.4984345 -4.4683977 -1.9799021
H 9.4939957 -4.3994889 -3.0588678
N 7.0011468 -4.4303828 -1.6895180
N 6.9751462 -1.6845871 4.1136700
N 6.9830673 1.6812042 -4.0990675
N 7.0095270 4.4474181 1.6900491
N -7.7090603 4.0896240 1.6126193
N -7.6890574 1.5930925 -3.9821038
N -7.7027241 -1.6101939 3.9638995
N -7.7096506 -4.1091304 -1.6298184
N -7.7207979 0.5914967 4.2470909
H -7.4169744 1.5860224 4.2485415
N -7.7302492 -4.3748429 0.5741003
H -7.4218759 -4.3571837 1.5675445
N -7.7079721 -0.6088121 -4.2634728
H -7.4051073 -1.6035856 -4.2638393
N -7.7234993 4.3549982 -0.5913651
H -7.4125189 4.3381559 -1.5839929
N 7.0193433 4.6729904 -0.5142177
H 6.7178306 4.6748677 -1.4936779
N 6.9959006 -0.5301107 -4.2829115
H 6.6775673 -1.5134204 -4.2532215
N 7.0172743 -4.6585489 0.5150382
H 6.7186889 -4.6615231 1.4955777
N 6.9867983 0.5252122 4.3019971
H 6.6817551 1.5096922 4.2838044
Br -0.8627705 -0.4615013 3.5456579
Br -0.8558839 -4.0995481 -0.6687004
Br -0.8513269 0.4228763 -3.5405318
Br -0.8526732 4.1080590 0.6762972
C 4.8001878 4.5190892 0.6116497
C 4.0950329 3.6214310 -0.1942184
C 4.0937183 5.3861178 1.4549381
C 2.7096876 3.6058657 -0.0721994
H 2.1264016 2.9102863 -0.6686067
C 4.7938691 0.5273936 -3.9540278
C 4.2294518 -0.2030852 -2.9056801
C 3.9640844 1.1992580 -4.8557214
C 2.8410522 -0.2273700 -2.8223660
H 2.3577595 -0.7828315 -2.0241534
C 4.7830492 -0.5413594 3.9767346
C 4.2082885 0.2200566 2.9556546
C 3.9606701 -1.2612903 4.8484431
C 4.7960213 -4.4956581 -0.6038103
C 4.0964847 -3.5890902 0.1967256
C 4.0851696 -5.3686296 -1.4374865
C 2.7109490 -3.5673071 0.0745580
H 2.1309175 -2.8656445 0.6670466
C 5.0457305 -0.8861192 -1.8518362
H 5.3767917 -1.8769406 -2.1618807
H 5.9349254 -0.3133642 -1.5876031
H 4.4539650 -1.0145758 -0.9480245
C 4.4919525 1.9896126 -6.0141171
H 3.6865306 2.2562084 -6.6966973
H 4.9706519 2.9119681 -5.6870010
H 5.2375856 1.4301995 -6.5789027
C 4.7423636 2.6799636 -1.1592377
H 4.9665111 3.1670512 -2.1080744
H 5.6737100 2.2573882 -0.7831764
H 4.0678916 1.8581319 -1.3868114
C 4.7527678 6.4426114 2.2900313
H 5.2752088 6.0233149 3.1473984
H 5.4891474 7.0062514 1.7178129
H 4.0114980 7.1475413 2.6640406
C 4.7406336 -6.4422448 -2.2536264
H 3.9931920 -7.1298437 -2.6469532
H 5.3004112 -6.0405259 -3.0956358
H 5.4448223 -7.0225132 -1.6574691
C 4.7494521 -2.6512420 1.1618492
H 4.9625286 -3.1397323 2.1126193
H 5.6878719 -2.2403768 0.7906265
H 4.0836137 -1.8209783 1.3849458
C 4.4930328 -2.0823810 5.9831985
H 3.6897015 -2.3646986 6.6619868
H 4.9672523 -2.9973920 5.6305368
H 5.2425794 -1.5401024 6.5590146
C 5.0106449 0.9711876 1.9378351
H 5.9166824 0.4372003 1.6508430
H 4.4181733 1.1266061 1.0385925
H 5.3097974 1.9566277 2.2947965
C 2.7087244 5.2649540 1.4708629
H 2.1197923 5.9153789 2.1091030
N 2.0322223 4.3929616 0.7425029
N 2.0310245 -0.4651242 3.6729037
N 2.0297349 -4.3567388 -0.7346657
N 2.0437584 0.4080320 -3.6622019
C 2.5892066 -1.1801862 4.6349234
H 1.9099264 -1.7218100 5.2852506
C 2.7010479 -5.2395689 -1.4551806
H 2.1081227 -5.8929781 -2.0866837
C 2.8202693 0.2186469 2.8642280
H 2.3305869 0.7956285 2.0854889
C 2.5931705 1.0992785 -4.6465571
H 1.9070956 1.6039685 -5.3190891
O 6.4272581 -3.2123084 -4.1522163
H 6.5985343 -3.6908472 -3.3090041
O 6.9046576 4.3528620 -3.2969483
H 6.8458484 3.4080697 -3.5683579
O 6.6663063 3.2556210 4.1867424
H 6.7257665 3.7078000 3.3136098
O 6.9084569 -4.3523718 3.2942572
H 6.8407470 -3.4116979 3.5773975
C 5.2731207 -3.7300908 -4.7719836
H 5.0491457 -3.1177989 -5.6454011
H 5.4192984 -4.7576898 -5.1188224
H 4.3963839 -3.7087290 -4.1163241
C 6.4571846 5.1645559 -4.3557232
H 5.3833404 5.0585621 -4.5455967
H 6.6452941 6.2060392 -4.0966682
H 6.9886839 4.9527294 -5.2884566
C 5.8788489 4.0214629 5.0663903
H 4.8445150 4.1284705 4.7228751
H 5.8569512 3.5195388 6.0334203
H 6.2937395 5.0220836 5.2236958
C 6.4932043 -5.1870131 4.3482176
H 5.4184005 -5.1143889 4.5476500
H 6.7093150 -6.2199531 4.0769744
H 7.0259717 -4.9692196 5.2788087
O -7.2702925 4.1930525 -3.2377641
H -7.3660188 3.2500117 -3.5170501
C -6.2369571 4.7927461 -3.9795764
H -6.1862381 5.8479543 -3.7140524
H -5.2559999 4.3487047 -3.7752178
H -6.4192378 4.7260854 -5.0560760
O -7.3077855 -3.2711991 -4.2012215
H -7.3949014 -3.5940808 -3.2716989
C -6.3111867 -4.0153113 -4.8578043
H -6.2768918 -3.7052773 -5.9014114
H -5.3145889 -3.8595464 -4.4295042
H -6.5244880 -5.0878547 -4.8334177
O -7.2823088 -4.2102635 3.2211208
H -7.3789289 -3.2671026 3.4997248
C -6.2505670 -4.8093243 3.9656485
H -6.1979051 -5.8642985 3.6995753
H -5.2694725 -4.3641017 3.7645293
H -6.4361405 -4.7435670 5.0416405
O -7.3159604 3.2529822 4.1856104
H -7.3994860 3.5754104 3.2555985
C -6.3198191 3.9953585 4.8448587
H -6.2898359 3.6862885 5.8888846
H -5.3221460 3.8367706 4.4201361
H -6.5305021 5.0683772 4.8186780